Version 4
SHEET 1 1892 1248
WIRE 720 -304 640 -304
WIRE 864 -304 720 -304
WIRE 896 -304 864 -304
WIRE 864 -288 864 -304
WIRE 864 -192 864 -208
WIRE 1040 -192 864 -192
WIRE 1136 -192 1040 -192
WIRE 1216 -192 1136 -192
WIRE 1376 -192 1296 -192
WIRE 1472 -192 1376 -192
WIRE 640 -176 640 -304
WIRE 720 -176 720 -304
WIRE 864 -176 864 -192
WIRE 1040 -160 1040 -192
WIRE 1136 -160 1136 -192
WIRE 1376 -160 1376 -192
WIRE 1472 -160 1472 -192
WIRE 864 -48 864 -112
WIRE 1040 -48 1040 -96
WIRE 1136 -48 1136 -96
WIRE 1376 -48 1376 -96
WIRE 1472 -48 1472 -96
WIRE 288 128 288 112
WIRE -128 144 -128 128
WIRE -128 144 -464 144
WIRE -128 176 -128 144
WIRE 288 240 288 208
WIRE 416 240 288 240
WIRE 640 240 640 -96
WIRE 640 240 480 240
WIRE 768 240 640 240
WIRE 896 240 848 240
WIRE 1008 240 896 240
WIRE 1136 240 1088 240
WIRE 1248 240 1200 240
WIRE 1360 240 1248 240
WIRE 1488 240 1424 240
WIRE 896 272 896 240
WIRE 1488 272 1488 240
WIRE 288 320 288 240
WIRE 384 352 368 352
WIRE -128 368 -128 256
WIRE -48 368 -128 368
WIRE 96 368 16 368
WIRE 240 368 96 368
WIRE 384 384 368 384
WIRE 896 400 896 336
WIRE 896 400 880 400
WIRE 1488 400 1488 352
WIRE 1552 400 1488 400
WIRE 1648 400 1632 400
WIRE 1488 448 1488 400
WIRE 896 464 896 400
WIRE -864 480 -1040 480
WIRE -704 480 -784 480
WIRE -624 480 -704 480
WIRE -464 480 -464 144
WIRE -464 480 -544 480
WIRE -128 480 -128 368
WIRE 96 480 96 368
WIRE -1040 512 -1040 480
WIRE -704 512 -704 480
WIRE -464 512 -464 480
WIRE 288 560 288 416
WIRE 416 560 288 560
WIRE 720 560 720 -96
WIRE 720 560 480 560
WIRE 768 560 720 560
WIRE 896 560 896 528
WIRE 896 560 848 560
WIRE 1008 560 896 560
WIRE 1136 560 1088 560
WIRE 1296 560 1200 560
WIRE 1360 560 1296 560
WIRE 1488 560 1488 528
WIRE 1488 560 1424 560
WIRE 288 592 288 560
WIRE -128 688 -128 560
WIRE 96 688 96 560
WIRE 96 688 -128 688
WIRE 288 688 288 672
WIRE 288 688 96 688
WIRE 1248 688 1248 240
WIRE 1296 688 1296 560
WIRE -1040 736 -1040 592
WIRE -704 736 -704 576
WIRE -464 736 -464 576
WIRE -128 736 -128 688
WIRE 1248 784 1248 768
WIRE 1296 784 1296 768
WIRE 1296 784 1248 784
WIRE 1248 800 1248 784
WIRE 1248 880 1248 864
FLAG -1040 736 0
FLAG -704 736 0
FLAG -464 736 0
FLAG -128 128 BIAS
FLAG 880 400 0
FLAG 1648 400 0
FLAG 1488 240 O+
FLAG 1488 560 O-
FLAG 1248 880 0
FLAG 896 -304 PHANTOM
FLAG -128 368 CP
FLAG 288 240 D+
FLAG 288 560 D-
FLAG 288 112 VCC
FLAG 864 -48 0
FLAG 1136 -48 0
FLAG 1040 -48 0
FLAG 1376 -48 0
FLAG 1472 -48 0
FLAG -128 736 0
FLAG 1472 -192 VCC
FLAG 896 240 IT+
FLAG 896 560 IT-
FLAG 384 384 0
FLAG 384 352 VCC
SYMBOL Voltage -128 464 M0
WINDOW 123 24 118 Left 2
WINDOW 39 24 140 Left 2
SYMATTR Value2 AC 1
SYMATTR SpiceLine Cpar=75p
SYMATTR InstName V1
SYMATTR Value SINE(0 1m 1k)
SYMBOL Misc/battery -1040 496 R0
WINDOW 39 24 126 Left 2
SYMATTR SpiceLine Rser=0.5
SYMATTR InstName V2
SYMATTR Value 84
SYMBOL Res -768 464 R90
WINDOW 0 0 56 VBottom 2
WINDOW 3 32 56 VTop 2
SYMATTR InstName R1
SYMATTR Value 1Meg
SYMBOL Cap -720 512 R0
SYMATTR InstName C1
SYMATTR Value 100n
SYMBOL Res -528 464 R90
WINDOW 0 0 56 VBottom 2
WINDOW 3 32 56 VTop 2
SYMATTR InstName R2
SYMATTR Value 1Meg
SYMBOL Cap -448 512 M0
SYMATTR InstName C2
SYMATTR Value 100n
SYMBOL Res -112 160 M0
SYMATTR InstName R3
SYMATTR Value 100Meg
SYMBOL Cap 16 352 R90
WINDOW 0 0 32 VBottom 2
WINDOW 3 32 32 VTop 2
SYMATTR InstName C3
SYMATTR Value 10n
SYMBOL Res 80 464 R0
SYMATTR InstName R4
SYMATTR Value 1G
SYMBOL Res 864 224 R90
WINDOW 0 0 56 VBottom 2
WINDOW 3 32 56 VTop 2
SYMATTR InstName R7
SYMATTR Value 47
SYMBOL Res 864 544 R90
WINDOW 0 0 56 VBottom 2
WINDOW 3 32 56 VTop 2
SYMATTR InstName R8
SYMATTR Value 47
SYMBOL Res 656 -192 M0
SYMATTR InstName R9
SYMATTR Value 2.2k
SYMBOL Res 704 -192 R0
SYMATTR InstName R10
SYMATTR Value 2.2k
SYMBOL Cap 880 272 R0
SYMATTR InstName C6
SYMATTR Value 220p
SYMBOL Cap 880 528 M180
WINDOW 0 24 56 Left 2
WINDOW 3 24 8 Left 2
SYMATTR InstName C7
SYMATTR Value 220p
SYMBOL Misc/jumper 1168 176 R0
SYMATTR InstName X1
SYMBOL Misc/jumper 1168 624 M180
SYMATTR InstName X2
SYMBOL Res 1472 256 R0
SYMATTR InstName R11
SYMATTR Value 3k
SYMBOL Res 1472 432 R0
SYMATTR InstName R12
SYMATTR Value 3k
SYMBOL Res 1648 384 R90
WINDOW 0 0 56 VBottom 2
WINDOW 3 32 56 VTop 2
SYMATTR InstName R13
SYMATTR Value 2k
SYMBOL Misc/cell 1248 800 R0
SYMATTR InstName V3
SYMATTR Value 48
SYMBOL Cap 1424 224 R90
WINDOW 0 0 32 VBottom 2
WINDOW 3 32 32 VTop 2
SYMATTR InstName C8
SYMATTR Value 44µ
SYMBOL Cap 1424 544 R90
WINDOW 0 0 32 VBottom 2
WINDOW 3 32 32 VTop 2
SYMATTR InstName C9
SYMATTR Value 44µ
SYMBOL Res 1264 672 M0
SYMATTR InstName R14
SYMATTR Value 6.8k
SYMBOL Res 1280 672 R0
SYMATTR InstName R15
SYMATTR Value 6.8k
SYMBOL Res 272 112 R0
SYMATTR InstName R16
SYMATTR Value 499
SYMBOL Res 272 576 R0
SYMATTR InstName R17
SYMATTR Value 499
SYMBOL polcap 480 224 R90
WINDOW 0 0 32 VBottom 2
WINDOW 3 32 32 VTop 2
SYMATTR InstName C4
SYMATTR Value 47µ
SYMBOL polcap 480 544 R90
WINDOW 0 0 32 VBottom 2
WINDOW 3 32 32 VTop 2
SYMATTR InstName C5
SYMATTR Value 47µ
SYMBOL AutoGenerated/JFE150 288 368 R0
SYMATTR InstName U1
SYMBOL zener 848 -112 M180
WINDOW 0 24 64 Left 2
WINDOW 3 24 0 Left 2
SYMATTR InstName D1
SYMATTR Value BZX384B7V5
SYMBOL Res 848 -304 R0
SYMATTR InstName R5
SYMATTR Value 2.2k
SYMBOL Cap 1024 -160 R0
SYMATTR InstName C10
SYMATTR Value 47µ
SYMBOL Cap 1120 -160 R0
SYMATTR InstName C11
SYMATTR Value 100n
SYMBOL Res 1312 -208 R90
WINDOW 0 0 56 VBottom 2
WINDOW 3 32 56 VTop 2
SYMATTR InstName R6
SYMATTR Value 100
SYMBOL Cap 1488 -160 M0
SYMATTR InstName C12
SYMATTR Value 47µ
SYMBOL Cap 1392 -160 M0
SYMATTR InstName C13
SYMATTR Value 100n
SYMBOL ind 992 256 R270
WINDOW 0 32 56 VTop 2
WINDOW 3 5 56 VBottom 2
SYMATTR InstName L1
SYMATTR Value 47µ
SYMBOL ind 992 544 M90
WINDOW 0 5 56 VBottom 2
WINDOW 3 32 56 VTop 2
SYMATTR InstName L2
SYMATTR Value 47µ
TEXT -152 640 Right 2 ;GM3412-05 CAPSULE
TEXT -384 816 Left 2 !.ac dec 100 30 20k
TEXT -1016 656 Left 2 ;BIAS VOLTAGE
TEXT -1016 680 Left 2 ;FROM HEX INVERTER
TEXT -88 312 Left 2 ;MICA OR PTFE
TEXT 1184 520 VLeft 2 ;XLR CABLE TO RPEAMP
TEXT 1576 496 Left 2 ;PREAMP INPUT IMPEDANCE
TEXT 1272 880 Left 2 ;PHANTOM POWER FROM PREAMP
TEXT -384 896 Left 2 !.op
TEXT -384 936 Left 2 ;.options gmin=10n abstol=10n reltol=0.003 noopiter method=Gear
TEXT -384 976 Left 2 ;.noise V(O+,O-) V1 dec 100 30 20k
TEXT -384 1072 Left 4 ;LOW NOISE LOW DISTORTION UNIVERSAL LARGE DIAPHRAGM CAPSULE IMPEDANCE ADAPTER
TEXT -776 312 Left 2 ;OPTIONAL BIAS CIRCUIT
TEXT -776 344 Left 2 ;omit if electret capsule
TEXT 440 872 Left 2 ;.tran 0 200m 100m 100n
TEXT 440 920 Left 2 ;.four 1k 10 100 V(O+,O-)
TEXT 440 968 Left 2 !.options plotwinsize=0 measdgt=7 numdgt=7
TEXT -384 856 Left 2 !.include JFE150.cir
TEXT 1272 912 Left 2 ;10mA MAX
TEXT 1184 152 Left 2 ;-> preamp
TEXT 992 152 Left 2 ;microphone <-
TEXT -392 1160 Left 2 ;315nV RMS 30Hz - 20kHz (-70dB 1mV REF)
TEXT -392 1200 Left 2 ;2.22nV/sqrt(Hz) @ 1kHz
TEXT -392 1232 Left 2 ;3.46nV/sqrt(Hz) @ 30Hz
TEXT 160 1160 Left 2 ;THD 0.003%
TEXT -328 896 Left 2 ;.tf V(IT+,IT-) V1
TEXT 440 824 Left 2 ;.tran 2.5 startup
TEXT -136 816 Left 2 ;.ac dec 100 0.1 10Meg
LINE Normal -64 272 -64 64 2
LINE Normal -64 64 -512 64 2
LINE Normal -512 64 -512 400 2
LINE Normal -512 400 -1104 400 2
LINE Normal -1104 400 -1104 768 2
LINE Normal -1104 768 -404 768 2
LINE Normal -404 768 -400 272 2
LINE Normal -400 272 -68 272 2
LINE Normal 1172 656 1168 140 2
