Version 4
SHEET 1 1892 1248
WIRE 720 -384 640 -384
WIRE 864 -384 720 -384
WIRE 928 -384 864 -384
WIRE 1040 -384 1008 -384
WIRE 1088 -384 1040 -384
WIRE 1200 -384 1168 -384
WIRE 1280 -384 1200 -384
WIRE 1664 -384 1360 -384
WIRE 1040 -336 1040 -384
WIRE 1200 -336 1200 -384
WIRE 864 -288 864 -384
WIRE 1664 -288 1664 -384
WIRE 1040 -256 1040 -272
WIRE 1200 -256 1200 -272
WIRE 864 -192 864 -208
WIRE 1040 -192 864 -192
WIRE 1136 -192 1040 -192
WIRE 1216 -192 1136 -192
WIRE 1376 -192 1296 -192
WIRE 1472 -192 1376 -192
WIRE 1584 -192 1552 -192
WIRE 1664 -192 1664 -224
WIRE 1664 -192 1584 -192
WIRE 640 -176 640 -384
WIRE 720 -176 720 -384
WIRE 864 -176 864 -192
WIRE 1040 -160 1040 -192
WIRE 1136 -160 1136 -192
WIRE 1376 -160 1376 -192
WIRE 864 -48 864 -112
WIRE 1040 -48 1040 -96
WIRE 1136 -48 1136 -96
WIRE 1376 -48 1376 -96
WIRE -864 80 -864 48
WIRE -864 80 -912 80
WIRE -832 80 -864 80
WIRE -912 96 -912 80
WIRE -832 96 -832 80
WIRE -912 192 -912 176
WIRE -864 192 -912 192
WIRE -832 192 -832 160
WIRE -832 192 -864 192
WIRE -864 240 -864 192
WIRE -496 240 -864 240
WIRE -384 240 -496 240
WIRE -256 240 -304 240
WIRE -144 240 -256 240
WIRE -112 240 -144 240
WIRE 96 240 -48 240
WIRE 288 240 288 112
WIRE 416 240 288 240
WIRE 640 240 640 -96
WIRE 640 240 480 240
WIRE 768 240 640 240
WIRE 896 240 848 240
WIRE 1008 240 896 240
WIRE 1136 240 1088 240
WIRE 1248 240 1200 240
WIRE 1360 240 1248 240
WIRE 1488 240 1424 240
WIRE -864 272 -864 240
WIRE 896 272 896 240
WIRE 1488 272 1488 240
WIRE -144 288 -144 240
WIRE -256 304 -256 240
WIRE 288 320 288 240
WIRE 384 352 368 352
WIRE 96 368 96 240
WIRE 240 368 96 368
WIRE -864 384 -864 336
WIRE -352 384 -384 384
WIRE -256 384 -256 368
WIRE -256 384 -288 384
WIRE 384 384 368 384
WIRE -256 400 -256 384
WIRE 896 400 896 336
WIRE 896 400 880 400
WIRE 1488 400 1488 352
WIRE 1552 400 1488 400
WIRE 1648 400 1632 400
WIRE 1488 448 1488 400
WIRE 896 464 896 400
WIRE 96 480 96 368
WIRE -864 496 -864 464
WIRE -256 496 -256 480
WIRE 288 560 288 416
WIRE 416 560 288 560
WIRE 720 560 720 -96
WIRE 720 560 480 560
WIRE 768 560 720 560
WIRE 896 560 896 528
WIRE 896 560 848 560
WIRE 1008 560 896 560
WIRE 1136 560 1088 560
WIRE 1296 560 1200 560
WIRE 1360 560 1296 560
WIRE 1488 560 1488 528
WIRE 1488 560 1424 560
WIRE -496 592 -496 240
WIRE -256 592 -256 576
WIRE -256 592 -496 592
WIRE 288 592 288 560
WIRE -864 688 -864 576
WIRE -384 688 -864 688
WIRE -144 688 -144 368
WIRE -144 688 -384 688
WIRE 96 688 96 560
WIRE 96 688 -144 688
WIRE 288 688 288 672
WIRE 288 688 96 688
WIRE 1248 688 1248 240
WIRE 1296 688 1296 560
WIRE -384 736 -384 688
WIRE 1248 784 1248 768
WIRE 1296 784 1296 768
WIRE 1296 784 1248 784
WIRE 1248 800 1248 784
WIRE 1248 880 1248 864
FLAG 880 400 0
FLAG 1648 400 0
FLAG 1488 240 O+
FLAG 1488 560 O-
FLAG 1248 880 0
FLAG -256 240 CP
FLAG 288 240 D+
FLAG 288 560 D-
FLAG 288 112 VCC
FLAG 864 -48 0
FLAG 1136 -48 0
FLAG 1040 -48 0
FLAG 1376 -48 0
FLAG -384 736 0
FLAG 896 240 IT+
FLAG 896 560 IT-
FLAG 1584 -192 VCC
FLAG 1040 -256 0
FLAG 1200 -256 0
FLAG 1664 -384 BIAS_C
FLAG 384 384 0
FLAG 384 352 VCC
FLAG -864 48 BIAS_C
FLAG -384 384 BIAS_C
SYMBOL Voltage -288 240 M270
WINDOW 123 24 118 Left 2
WINDOW 39 24 140 Left 2
SYMATTR Value2 AC 1
SYMATTR SpiceLine Cpar=50p
SYMATTR InstName V1
SYMATTR Value SINE(0 1m 1k)
SYMBOL Res 80 464 R0
SYMATTR InstName R4
SYMATTR Value 1G
SYMBOL Res 864 224 R90
WINDOW 0 0 56 VBottom 2
WINDOW 3 32 56 VTop 2
SYMATTR InstName R7
SYMATTR Value 47
SYMBOL Res 864 544 R90
WINDOW 0 0 56 VBottom 2
WINDOW 3 32 56 VTop 2
SYMATTR InstName R8
SYMATTR Value 47
SYMBOL Res 656 -192 M0
SYMATTR InstName R9
SYMATTR Value 2.2k
SYMBOL Res 704 -192 R0
SYMATTR InstName R10
SYMATTR Value 2.2k
SYMBOL Cap 880 272 R0
SYMATTR InstName C6
SYMATTR Value 330p
SYMBOL Cap 880 528 M180
WINDOW 0 24 56 Left 2
WINDOW 3 24 8 Left 2
SYMATTR InstName C7
SYMATTR Value 330p
SYMBOL Misc/jumper 1168 176 R0
SYMATTR InstName X1
SYMBOL Misc/jumper 1168 624 M180
SYMATTR InstName X2
SYMBOL Res 1472 256 R0
SYMATTR InstName R11
SYMATTR Value 3k
SYMBOL Res 1472 432 R0
SYMATTR InstName R12
SYMATTR Value 3k
SYMBOL Res 1648 384 R90
WINDOW 0 0 56 VBottom 2
WINDOW 3 32 56 VTop 2
SYMATTR InstName R13
SYMATTR Value 2k
SYMBOL Misc/cell 1248 800 R0
SYMATTR InstName V3
SYMATTR Value 48
SYMBOL Cap 1424 224 R90
WINDOW 0 0 32 VBottom 2
WINDOW 3 32 32 VTop 2
SYMATTR InstName C8
SYMATTR Value 44µ
SYMBOL Cap 1424 544 R90
WINDOW 0 0 32 VBottom 2
WINDOW 3 32 32 VTop 2
SYMATTR InstName C9
SYMATTR Value 44µ
SYMBOL Res 1264 672 M0
SYMATTR InstName R14
SYMATTR Value 6.8k
SYMBOL Res 1280 672 R0
SYMATTR InstName R15
SYMATTR Value 6.8k
SYMBOL Res 272 576 R0
SYMATTR InstName R17
SYMATTR Value 4.99k
SYMBOL polcap 480 224 R90
WINDOW 0 0 32 VBottom 2
WINDOW 3 32 32 VTop 2
SYMATTR InstName C4
SYMATTR Value 47µ
SYMBOL polcap 480 544 R90
WINDOW 0 0 32 VBottom 2
WINDOW 3 32 32 VTop 2
SYMATTR InstName C5
SYMATTR Value 47µ
SYMBOL AutoGenerated/JFE150 288 368 R0
SYMATTR InstName U1
SYMBOL zener 848 -112 M180
WINDOW 0 24 64 Left 2
WINDOW 3 24 0 Left 2
SYMATTR InstName D1
SYMATTR Value BZX384B33
SYMBOL Res 848 -304 R0
SYMATTR InstName R5
SYMATTR Value 3k
SYMBOL Cap 1024 -160 R0
SYMATTR InstName C10
SYMATTR Value 10µ
SYMBOL Cap 1120 -160 R0
SYMATTR InstName C11
SYMATTR Value 100n
SYMBOL Res 1312 -208 R90
WINDOW 0 0 56 VBottom 2
WINDOW 3 32 56 VTop 2
SYMATTR InstName R6
SYMATTR Value 10k
SYMBOL Cap 1392 -160 M0
SYMATTR InstName C13
SYMATTR Value 4.7µ
SYMBOL ind 992 256 R270
WINDOW 0 32 56 VTop 2
WINDOW 3 5 56 VBottom 2
SYMATTR InstName L1
SYMATTR Value 47µ
SYMBOL ind 992 544 M90
WINDOW 0 5 56 VBottom 2
WINDOW 3 32 56 VTop 2
SYMATTR InstName L2
SYMATTR Value 47µ
SYMBOL Res 1568 -208 R90
WINDOW 0 0 56 VBottom 2
WINDOW 3 32 56 VTop 2
SYMATTR InstName R18
SYMATTR Value 47k
SYMBOL Cap 1648 -288 R0
SYMATTR InstName C12
SYMATTR Value 470n
SYMBOL Res 1024 -400 R90
WINDOW 0 0 56 VBottom 2
WINDOW 3 32 56 VTop 2
SYMATTR InstName R19
SYMATTR Value 150k
SYMBOL Cap 1024 -336 R0
SYMATTR InstName C14
SYMATTR Value 2.2µ
SYMBOL Res 1184 -400 R90
WINDOW 0 0 56 VBottom 2
WINDOW 3 32 56 VTop 2
SYMATTR InstName R20
SYMATTR Value 150k
SYMBOL Cap 1184 -336 R0
SYMATTR InstName C15
SYMATTR Value 2.2µ
SYMBOL Res 1376 -400 R90
WINDOW 0 0 56 VBottom 2
WINDOW 3 32 56 VTop 2
SYMATTR InstName R21
SYMATTR Value 330k
SYMBOL Res -896 80 M0
SYMATTR InstName R1
SYMATTR Value 1Meg
SYMBOL Cap -848 96 R0
SYMATTR InstName C1
SYMATTR Value 220p
SYMBOL Cap -880 272 R0
SYMATTR InstName C2
SYMATTR Value 33n
SYMBOL Res -880 368 R0
SYMATTR InstName R2
SYMATTR Value 6.8k
SYMBOL Res -880 480 R0
SYMATTR InstName R22
SYMATTR Value 560
SYMBOL Cap -272 304 R0
SYMATTR InstName C3
SYMATTR Value 470p
SYMBOL Res -272 384 R0
SYMATTR InstName R3
SYMATTR Value 1G
SYMBOL Res -272 480 R0
SYMATTR InstName R23
SYMATTR Value 68Meg
SYMBOL Cap -288 368 R90
WINDOW 0 0 32 VBottom 2
WINDOW 3 32 32 VTop 2
SYMATTR InstName C16
SYMATTR Value 10p
SYMBOL Res -160 272 R0
SYMATTR InstName R24
SYMATTR Value 1G
SYMBOL Cap -48 224 R90
WINDOW 0 0 32 VBottom 2
WINDOW 3 32 32 VTop 2
SYMATTR InstName C17
SYMATTR Value 470p
TEXT -384 816 Left 2 ;.ac dec 100 30 20k
TEXT 104 384 Left 2 ;GUARD
TEXT 1184 520 VLeft 2 ;XLR CABLE TO RPEAMP
TEXT 1576 496 Left 2 ;PREAMP INPUT IMPEDANCE
TEXT 1272 880 Left 2 ;PHANTOM POWER FROM PREAMP
TEXT -384 896 Left 2 !.op
TEXT -384 936 Left 2 ;.options gmin=10n abstol=10n reltol=0.003 noopiter method=Gear
TEXT -384 976 Left 2 ;.noise V(O+,O-) V1 dec 100 30 20k
TEXT 440 872 Left 2 ;.tran 0 200m 100m 100n
TEXT 440 920 Left 2 ;.four 1k 10 100 V(O+,O-)
TEXT 440 968 Left 2 !.options plotwinsize=0 measdgt=7 numdgt=7
TEXT -384 856 Left 2 !.include JFE150.cir
TEXT 1272 912 Left 2 ;10mA MAX
TEXT 1184 152 Left 2 ;-> preamp
TEXT 992 152 Left 2 ;microphone <-
TEXT -328 896 Left 2 ;.tf V(IT+,IT-) V1
TEXT 640 704 Left 2 !.tran 2.5 startup
LINE Normal 1172 656 1168 140 2
