Version 4
SHEET 1 1144 768
WIRE 272 96 144 96
WIRE 144 112 144 96
WIRE 272 112 272 96
WIRE 144 224 144 192
WIRE 272 224 272 192
WIRE 272 240 272 224
WIRE 48 288 0 288
WIRE 144 288 112 288
WIRE 224 288 144 288
WIRE 272 352 272 336
WIRE 0 368 0 288
WIRE 144 368 144 288
WIRE 272 384 272 352
WIRE 0 480 0 448
WIRE 144 480 144 448
WIRE 272 480 272 464
FLAG 272 480 0
FLAG 272 224 D+
FLAG 272 352 D-
FLAG 144 224 0
FLAG 144 96 VCC
FLAG 144 480 0
FLAG 0 480 0
SYMBOL Res 256 96 R0
SYMATTR InstName R1
SYMATTR Value 1k
SYMBOL Res 256 368 R0
SYMATTR InstName R2
SYMATTR Value 1k
SYMBOL Voltage 144 96 R0
SYMATTR InstName V2
SYMATTR Value 7.5
SYMBOL voltage 0 352 R0
WINDOW 123 24 118 Left 2
SYMATTR Value2 AC 1
SYMATTR InstName V1
SYMATTR Value ""
SYMBOL Res 128 352 R0
SYMATTR InstName R3
SYMATTR Value 1G
SYMBOL Cap 112 272 R90
WINDOW 0 0 32 VBottom 2
WINDOW 3 32 32 VTop 2
SYMATTR InstName C1
SYMATTR Value 10n
SYMBOL AutoGenerated/JFE150 272 288 R0
SYMATTR InstName U1
TEXT -16 552 Left 2 ;.tf V(D+,D-) V1
TEXT -16 680 Left 2 ;.op
TEXT -16 600 Left 2 ;.ac dec 100 30 20k
TEXT -16 640 Left 2 ;.noise V(D+,D-) V1 dec 100 30 20k
