Version 4
SHEET 1 3364 992
WIRE 0 -32 -64 -32
WIRE 64 -32 0 -32
WIRE 128 -32 64 -32
WIRE 192 -32 128 -32
WIRE 320 -32 272 -32
WIRE 432 -32 320 -32
WIRE 512 -32 432 -32
WIRE 640 -32 512 -32
WIRE 672 -32 640 -32
WIRE 800 -32 752 -32
WIRE 848 -32 800 -32
WIRE 1168 -32 912 -32
WIRE 1264 -32 1168 -32
WIRE 1408 -32 1264 -32
WIRE 1488 -32 1408 -32
WIRE 1600 -32 1488 -32
WIRE 1712 -32 1600 -32
WIRE 1792 -32 1712 -32
WIRE 1936 -32 1856 -32
WIRE 2032 -32 1936 -32
WIRE 2160 -32 2032 -32
WIRE -64 0 -64 -32
WIRE 0 0 0 -32
WIRE 64 0 64 -32
WIRE 128 0 128 -32
WIRE 320 0 320 -32
WIRE 432 0 432 -32
WIRE 1168 0 1168 -32
WIRE 1264 0 1264 -32
WIRE 1408 0 1408 -32
WIRE 1488 0 1488 -32
WIRE 1600 0 1600 -32
WIRE 1712 0 1712 -32
WIRE 1936 0 1936 -32
WIRE 2032 0 2032 -32
WIRE 2160 0 2160 -32
WIRE 640 80 640 -32
WIRE 800 80 800 -32
WIRE -64 96 -64 64
WIRE 0 96 0 64
WIRE 64 96 64 64
WIRE 128 96 128 64
WIRE 320 96 320 64
WIRE 432 96 432 64
WIRE 1168 96 1168 64
WIRE 1264 96 1264 80
WIRE 1264 96 1168 96
WIRE 1408 96 1408 64
WIRE 1488 96 1488 64
WIRE 1600 96 1600 64
WIRE 1712 96 1712 64
WIRE 1936 96 1936 64
WIRE 2032 96 2032 64
WIRE 2160 96 2160 80
WIRE 512 144 512 -32
WIRE 560 144 512 144
WIRE 1168 144 880 144
WIRE 560 240 304 240
WIRE 1264 240 1264 96
WIRE 1264 240 880 240
WIRE 560 336 416 336
WIRE 1024 336 880 336
WIRE 1264 368 1264 240
WIRE 1024 384 1024 336
WIRE 1168 384 1168 144
WIRE 560 432 512 432
WIRE 928 432 880 432
WIRE 1472 512 1472 464
WIRE 304 528 304 240
WIRE 416 528 416 336
WIRE 512 528 512 432
WIRE 1024 528 1024 464
WIRE 304 624 304 608
WIRE 416 624 416 608
WIRE 416 624 304 624
WIRE 512 624 512 592
WIRE 512 624 416 624
WIRE 720 624 720 496
WIRE 720 624 512 624
WIRE 928 624 928 432
WIRE 928 624 720 624
WIRE 1024 624 1024 592
WIRE 1024 624 928 624
WIRE 1168 624 1168 448
WIRE 1168 624 1024 624
WIRE 1264 624 1264 448
WIRE 1264 624 1168 624
WIRE 720 640 720 624
WIRE 1472 640 1472 592
FLAG 1472 640 0
FLAG 1472 464 VCC
FLAG 720 640 0
FLAG 1408 96 0
FLAG 1488 96 0
FLAG 1600 96 0
FLAG 1712 96 0
FLAG 1936 96 0
FLAG 1936 -32 OUTP
FLAG 320 96 0
FLAG 432 96 0
FLAG 128 96 0
FLAG 64 96 0
FLAG 0 96 0
FLAG -64 96 0
FLAG 64 -32 VCC
FLAG 2032 96 0
FLAG 2160 96 0
SYMBOL Misc/battery 1472 496 R0
SYMATTR InstName V1
SYMATTR Value 18
SYMBOL PowerProducts/LT8362 720 288 R0
SYMATTR InstName U1
SYMBOL Cap 496 528 R0
SYMATTR InstName C1
SYMATTR Value 10n
SYMBOL Res 400 512 R0
SYMATTR InstName R1
SYMATTR Value 121k
SYMBOL Res 288 512 R0
SYMATTR InstName R2
SYMATTR Value 100k
SYMBOL Res 1008 368 R0
SYMATTR InstName R3
SYMATTR Value 22.1k
SYMBOL Cap 1008 528 R0
SYMATTR InstName C2
SYMATTR Value 1n
SYMBOL Cap 1152 384 R0
SYMATTR InstName C3
SYMATTR Value 1µ
SYMBOL ind 656 -16 R270
WINDOW 0 32 56 VTop 2
WINDOW 3 5 56 VBottom 2
SYMATTR InstName L1
SYMATTR Value 22µ
SYMATTR SpiceLine Rser=190m
SYMBOL schottky 848 -16 R270
WINDOW 0 32 32 VTop 2
WINDOW 3 0 32 VBottom 2
SYMATTR InstName D1
SYMATTR Value DFLS260
SYMBOL Res 1248 -16 R0
SYMATTR InstName R4
SYMATTR Value 1Meg
SYMBOL Res 1248 352 R0
SYMATTR InstName R5
SYMATTR Value 34.8k
SYMBOL Cap 1152 0 R0
SYMATTR InstName C4
SYMATTR Value 4.7p
SYMBOL Cap 1392 0 R0
SYMATTR InstName C5
SYMATTR Value 100n
SYMBOL Cap 1472 0 R0
SYMATTR InstName C6
SYMATTR Value 100n
SYMBOL Cap 1584 0 R0
SYMATTR InstName C7
SYMATTR Value 22µ
SYMBOL Cap 1696 0 R0
SYMATTR InstName C8
SYMATTR Value 2.2µ
SYMBOL FerriteBead 1824 -32 R90
WINDOW 0 -16 0 VBottom 2
SYMATTR InstName L2
SYMATTR Value 1.43µ
SYMATTR SpiceLine Ipk=2 Rser=150m Rpar=830 Cpar=836f mfg="Würth Elektronik" pn="742792040 WE-CBF 0805"
SYMBOL Cap 1920 0 R0
SYMATTR InstName C9
SYMATTR Value 220n
SYMBOL Cap 304 0 R0
SYMATTR InstName C10
SYMATTR Value 82µ
SYMBOL Cap 416 0 R0
SYMATTR InstName C11
SYMATTR Value 10µ
SYMBOL Cap 112 0 R0
SYMATTR InstName C12
SYMATTR Value 4.7µ
SYMBOL Cap 48 0 R0
SYMATTR InstName C13
SYMATTR Value 4.7µ
SYMBOL Cap -16 0 R0
SYMATTR InstName C14
SYMATTR Value 4.7µ
SYMBOL Cap -80 0 R0
SYMATTR InstName C15
SYMATTR Value 4.7µ
SYMBOL ind 176 -16 R270
WINDOW 0 32 56 VTop 2
WINDOW 3 5 56 VBottom 2
SYMATTR InstName L3
SYMATTR Value 2.2µ
SYMATTR SpiceLine Rser=61m
SYMBOL Cap 2016 0 R0
SYMATTR InstName C16
SYMATTR Value 100n
SYMBOL Res 2144 -16 R0
SYMATTR InstName R6
SYMATTR Value 47k
TEXT 40 728 Left 2 !.model DFLS260 D(IS=721.4n RS=80m BV=60 IBV=10 CJO=320.8p M=450.7m N=1.029 TT=10n EG=480m VJ=292.4m)
TEXT 1760 -88 Left 2 ;742792040
TEXT 152 -88 Left 2 ;74437324022
TEXT 632 -88 Left 2 ;74437346220
TEXT 1440 352 Left 2 !.tran 1 uic
TEXT 1176 80 Left 2 ;NP0
TEXT 1032 608 Left 2 ;NP0
TEXT 520 608 Left 2 ;NP0
TEXT 40 768 Left 2 !.options plotwinsize=0 numdgt=7 measdgt=7
TEXT 40 808 Left 2 ;.options gmin=10n abstol=10n reltol=0.003 method=Gear noopiter cshunt=0.25p
